<?xml version="1.0" encoding="UTF-8"?>

<!-- generated on 2025-08-10 11:14:13 by Eclipse SUMO netedit Version 1.22.0
-->

<routes xmlns:xsi="http://www.w3.org/2001/XMLSchema-instance" xsi:noNamespaceSchemaLocation="http://sumo.dlr.de/xsd/routes_file.xsd">
    <!-- VTypes -->
    <vType id="Car" length="1.50" maxSpeed="30.00" width="1.00" accel="9.9" decel="9.9" sigma="0.0"/>
    <!-- Routes -->
    <route id="r_0" edges="-E19 E17 E18 E8 E9 E21 E13"/>
    <route id="r_1" edges="-E15 -E14 -E13 -E12 E1 E2 E3 -E24 E0"/>
    <route id="r_2" edges="E15 E10 E26 E25 E7 -E18 -E17"/>
    <!-- Vehicles, persons and containers (sorted by depart) -->
    <vehicle id="v_0" type="Car" depart="0.00" departSpeed="25.00" color="blue" route="r_0"/>
    <vehicle id="v_1" type="Car" depart="0.00" departSpeed="29.00" color="red" route="r_1"/>
    <vehicle id="v_2" type="Car" depart="0.00" departSpeed="28.00" color="cyan" route="r_2"/>
</routes>
