<?xml version="1.0" encoding="UTF-8"?>

<!-- generated on 2025-08-10 11:07:35 by Eclipse SUMO netedit Version 1.22.0
<neteditConfiguration xmlns:xsi="http://www.w3.org/2001/XMLSchema-instance" xsi:noNamespaceSchemaLocation="http://sumo.dlr.de/xsd/neteditConfiguration.xsd">

    <input>
        <sumocfg-file value="C:\Users\Admin\Desktop\SUMO\test.sumocfg"/>
        <additional-files value="C:\Users\Admin\Desktop\SUMO\test.add.xml"/>
        <route-files value="C:\Users\Admin\Desktop\SUMO\test.rou.xml"/>
        <sumo-net-file value="C:\Users\Admin\Desktop\SUMO\test.net.xml"/>
    </input>

    <output>
        <output-file value="C:\Users\Admin\Desktop\SUMO\test.net.xml"/>
    </output>

    <processing>
        <geometry.min-radius.fix.railways value="false"/>
        <geometry.max-grade.fix value="false"/>
        <offset.disable-normalization value="true"/>
        <lefthand value="0"/>
    </processing>

    <junctions>
        <no-turnarounds value="true"/>
        <junctions.corner-detail value="5"/>
        <junctions.limit-turn-speed value="5.50"/>
        <rectangular-lane-cut value="0"/>
    </junctions>

    <pedestrian>
        <walkingareas value="0"/>
    </pedestrian>

</neteditConfiguration>
-->

<net version="1.20" junctionCornerDetail="5" limitTurnSpeed="5.50" xmlns:xsi="http://www.w3.org/2001/XMLSchema-instance" xsi:noNamespaceSchemaLocation="http://sumo.dlr.de/xsd/net_file.xsd">

    <location netOffset="0.00,0.00" convBoundary="-3837.28,-2018.79,2015.52,752.49" origBoundary="-10000000000.00,-10000000000.00,10000000000.00,10000000000.00" projParameter="!"/>

    <edge id=":J1_0" function="internal">
        <lane id=":J1_0_0" index="0" speed="25.00" length="0.29" shape="253.85,-114.58 253.57,-114.55"/>
    </edge>
    <edge id=":J1_1" function="internal">
        <lane id=":J1_1_0" index="0" speed="25.00" length="0.31" shape="253.28,-117.74 253.58,-117.77"/>
    </edge>
    <edge id=":J11_0" function="internal">
        <lane id=":J11_0_0" index="0" speed="4.13" length="1.37" shape="1347.35,-1947.12 1347.10,-1947.37 1346.82,-1947.55 1346.50,-1947.66 1346.16,-1947.71"/>
    </edge>
    <edge id=":J11_1" function="internal">
        <lane id=":J11_1_0" index="0" speed="6.51" length="4.12" shape="1346.26,-1950.91 1347.31,-1950.77 1348.25,-1950.43 1349.09,-1949.88 1349.83,-1949.13"/>
    </edge>
    <edge id=":J12_0" function="internal">
        <lane id=":J12_0_0" index="0" speed="7.22" length="10.13" shape="-773.35,-2016.97 -775.78,-2016.63 -777.68,-2015.45 -779.05,-2013.43 -779.89,-2010.55"/>
    </edge>
    <edge id=":J12_1" function="internal">
        <lane id=":J12_1_0" index="0" speed="25.00" length="14.68" shape="-773.35,-2016.97 -777.05,-2017.04 -780.69,-2016.99 -784.33,-2016.86 -788.02,-2016.64"/>
    </edge>
    <edge id=":J12_2" function="internal">
        <lane id=":J12_2_0" index="0" speed="25.00" length="15.01" shape="-788.24,-2019.83 -784.50,-2020.05 -780.75,-2020.19 -776.99,-2020.23 -773.24,-2020.17"/>
    </edge>
    <edge id=":J12_3" function="internal">
        <lane id=":J12_3_0" index="0" speed="7.64" length="4.42" shape="-788.24,-2019.83 -783.93,-2019.51 -783.84,-2019.46"/>
    </edge>
    <edge id=":J12_6" function="internal">
        <lane id=":J12_6_0" index="0" speed="7.64" length="10.78" shape="-783.84,-2019.46 -781.10,-2017.86 -779.76,-2014.87 -779.89,-2010.55"/>
    </edge>
    <edge id=":J12_4" function="internal">
        <lane id=":J12_4_0" index="0" speed="6.05" length="9.07" shape="-783.03,-2011.10 -782.96,-2013.68 -783.76,-2015.46 -785.45,-2016.45 -788.02,-2016.64"/>
    </edge>
    <edge id=":J12_5" function="internal">
        <lane id=":J12_5_0" index="0" speed="8.60" length="14.77" shape="-783.03,-2011.10 -781.81,-2015.17 -779.77,-2018.03 -776.92,-2019.70 -773.24,-2020.17"/>
    </edge>
    <edge id=":J14_0" function="internal">
        <lane id=":J14_0_0" index="0" speed="7.47" length="10.96" shape="-2449.89,-837.98 -2453.20,-837.14 -2455.55,-835.77 -2456.94,-833.86 -2457.38,-831.43"/>
    </edge>
    <edge id=":J14_1" function="internal">
        <lane id=":J14_1_0" index="0" speed="5.76" length="9.17" shape="-2454.95,-846.41 -2455.37,-843.74 -2454.74,-841.97 -2453.08,-841.10 -2450.37,-841.14"/>
    </edge>
    <edge id=":J14_2" function="internal">
        <lane id=":J14_2_0" index="0" speed="19.45" length="15.23" shape="-2454.95,-846.41 -2455.95,-842.75 -2456.73,-839.00 -2457.23,-835.21 -2457.38,-831.43"/>
    </edge>
    <edge id=":J15_0" function="internal">
        <lane id=":J15_0_0" index="0" speed="6.52" length="8.98" shape="-2439.86,-22.92 -2442.29,-22.61 -2444.04,-21.60 -2445.13,-19.87 -2445.55,-17.44"/>
    </edge>
    <edge id=":J15_1" function="internal">
        <lane id=":J15_1_0" index="0" speed="25.00" length="11.56" shape="-2439.86,-22.92 -2443.07,-22.97 -2445.64,-23.05 -2448.20,-23.20 -2451.40,-23.50"/>
    </edge>
    <edge id=":J15_2" function="internal">
        <lane id=":J15_2_0" index="0" speed="6.60" length="9.08" shape="-2445.44,-31.83 -2445.05,-29.37 -2443.99,-27.59 -2442.24,-26.51 -2439.81,-26.12"/>
    </edge>
    <edge id=":J15_3" function="internal">
        <lane id=":J15_3_0" index="0" speed="19.45" length="14.39" shape="-2445.44,-31.83 -2445.55,-17.44"/>
    </edge>
    <edge id=":J15_4" function="internal">
        <lane id=":J15_4_0" index="0" speed="7.08" length="11.86" shape="-2445.44,-31.83 -2445.76,-27.95 -2446.86,-25.26 -2448.74,-23.78 -2451.40,-23.50"/>
    </edge>
    <edge id=":J15_5" function="internal">
        <lane id=":J15_5_0" index="0" speed="25.00" length="11.28" shape="-2451.07,-26.68 -2447.91,-26.39 -2445.45,-26.24 -2442.98,-26.17 -2439.81,-26.12"/>
    </edge>
    <edge id=":J15_6" function="internal">
        <lane id=":J15_6_0" index="0" speed="7.59" length="2.64" shape="-2451.07,-26.68 -2448.55,-25.88"/>
    </edge>
    <edge id=":J15_7" function="internal">
        <lane id=":J15_7_0" index="0" speed="7.59" length="9.33" shape="-2448.55,-25.88 -2446.80,-24.07 -2445.80,-21.26 -2445.55,-17.44"/>
    </edge>
    <edge id=":J16_0" function="internal">
        <lane id=":J16_0_0" index="0" speed="25.00" length="11.58" shape="-1003.56,0.85 -1006.76,1.10 -1009.33,1.19 -1011.91,1.19 -1015.12,1.13"/>
    </edge>
    <edge id=":J16_1" function="internal">
        <lane id=":J16_1_0" index="0" speed="7.06" length="2.68" shape="-1003.56,0.85 -1006.22,0.53"/>
    </edge>
    <edge id=":J16_4" function="internal">
        <lane id=":J16_4_0" index="0" speed="7.06" length="9.18" shape="-1006.22,0.53 -1008.07,-0.97 -1009.13,-3.67 -1009.38,-7.56"/>
    </edge>
    <edge id=":J16_2" function="internal">
        <lane id=":J16_2_0" index="0" speed="6.53" length="8.98" shape="-1015.07,-2.07 -1012.65,-2.38 -1010.89,-3.39 -1009.80,-5.12 -1009.38,-7.56"/>
    </edge>
    <edge id=":J16_3" function="internal">
        <lane id=":J16_3_0" index="0" speed="25.00" length="11.23" shape="-1015.07,-2.07 -1011.91,-2.01 -1009.45,-2.00 -1007.00,-2.09 -1003.85,-2.34"/>
    </edge>
    <edge id=":J17_0" function="internal">
        <lane id=":J17_0_0" index="0" speed="25.00" length="0.28" shape="-1032.16,735.88 -1032.44,735.88"/>
    </edge>
    <edge id=":J17_1" function="internal">
        <lane id=":J17_1_0" index="0" speed="25.00" length="0.31" shape="-1032.48,732.68 -1032.17,732.68"/>
    </edge>
    <edge id=":J18_0" function="internal">
        <lane id=":J18_0_0" index="0" speed="25.00" length="12.05" shape="-2463.86,754.00 -2467.15,754.04 -2469.89,754.00 -2472.61,753.79 -2475.87,753.32"/>
    </edge>
    <edge id=":J18_1" function="internal">
        <lane id=":J18_1_0" index="0" speed="6.41" length="9.04" shape="-2469.39,745.20 -2469.11,747.68 -2468.11,749.43 -2466.37,750.47 -2463.90,750.80"/>
    </edge>
    <edge id=":J18_2" function="internal">
        <lane id=":J18_2_0" index="0" speed="7.10" length="12.08" shape="-2469.39,745.20 -2469.90,749.15 -2471.15,751.82 -2473.14,753.21 -2475.87,753.32"/>
    </edge>
    <edge id=":J18_3" function="internal">
        <lane id=":J18_3_0" index="0" speed="25.00" length="11.47" shape="-2475.33,750.17 -2472.17,750.63 -2469.64,750.82 -2467.10,750.84 -2463.90,750.80"/>
    </edge>
    <edge id=":J20_0" function="internal">
        <lane id=":J20_0_0" index="0" speed="6.12" length="6.61" shape="-3805.13,527.16 -3806.81,526.63 -3808.04,525.70 -3808.81,524.37 -3809.12,522.64"/>
    </edge>
    <edge id=":J20_1" function="internal">
        <lane id=":J20_1_0" index="0" speed="3.93" length="2.20" shape="-3805.92,522.50 -3805.82,523.08 -3805.56,523.52 -3805.15,523.83 -3804.59,524.01"/>
    </edge>
    <edge id=":J21_0" function="internal">
        <lane id=":J21_0_0" index="0" speed="25.00" length="14.98" shape="-3838.55,-162.58 -3838.66,-166.32 -3838.67,-170.07 -3838.57,-173.81 -3838.36,-177.55"/>
    </edge>
    <edge id=":J21_1" function="internal">
        <lane id=":J21_1_0" index="0" speed="7.76" length="4.32" shape="-3838.55,-162.58 -3838.13,-166.70 -3838.04,-166.85"/>
    </edge>
    <edge id=":J21_6" function="internal">
        <lane id=":J21_6_0" index="0" speed="7.76" length="10.46" shape="-3838.04,-166.85 -3836.48,-169.50 -3833.58,-170.98 -3829.45,-171.14"/>
    </edge>
    <edge id=":J21_2" function="internal">
        <lane id=":J21_2_0" index="0" speed="6.21" length="9.05" shape="-3829.78,-167.96 -3832.31,-167.86 -3834.08,-166.95 -3835.10,-165.24 -3835.35,-162.72"/>
    </edge>
    <edge id=":J21_3" function="internal">
        <lane id=":J21_3_0" index="0" speed="8.19" length="14.57" shape="-3829.78,-167.96 -3833.77,-168.92 -3836.53,-170.84 -3838.06,-173.71 -3838.36,-177.55"/>
    </edge>
    <edge id=":J21_4" function="internal">
        <lane id=":J21_4_0" index="0" speed="6.74" length="9.53" shape="-3835.16,-177.32 -3834.96,-174.85 -3833.94,-173.00 -3832.10,-171.76 -3829.45,-171.14"/>
    </edge>
    <edge id=":J21_5" function="internal">
        <lane id=":J21_5_0" index="0" speed="25.00" length="14.61" shape="-3835.16,-177.32 -3835.38,-173.63 -3835.48,-170.02 -3835.46,-166.40 -3835.35,-162.72"/>
    </edge>
    <edge id=":J24_0" function="internal">
        <lane id=":J24_0_0" index="0" speed="25.00" length="0.38" shape="-3787.07,-832.00 -3787.10,-831.90 -3787.12,-831.82 -3787.13,-831.75 -3787.14,-831.64"/>
    </edge>
    <edge id=":J24_1" function="internal">
        <lane id=":J24_1_0" index="0" speed="25.00" length="1.13" shape="-3790.33,-831.87 -3790.31,-832.20 -3790.28,-832.43 -3790.22,-832.66 -3790.12,-832.98"/>
    </edge>
    <edge id=":J25_0" function="internal">
        <lane id=":J25_0_0" index="0" speed="4.01" length="1.73" shape="-3519.39,-1668.75 -3519.82,-1668.62 -3520.17,-1668.40 -3520.44,-1668.08 -3520.63,-1667.67"/>
    </edge>
    <edge id=":J25_1" function="internal">
        <lane id=":J25_1_0" index="0" speed="6.27" length="5.20" shape="-3523.68,-1668.64 -3523.12,-1669.87 -3522.31,-1670.82 -3521.27,-1671.50 -3519.97,-1671.90"/>
    </edge>
    <edge id=":J26_0" function="internal">
        <lane id=":J26_0_0" index="0" speed="7.15" length="8.06" shape="-2128.62,-1924.78 -2130.41,-1924.35 -2131.90,-1923.33 -2133.10,-1921.70 -2134.00,-1919.48"/>
    </edge>
    <edge id=":J26_1" function="internal">
        <lane id=":J26_1_0" index="0" speed="25.00" length="9.21" shape="-2128.62,-1924.78 -2131.35,-1924.59 -2133.21,-1924.42 -2135.07,-1924.15 -2137.76,-1923.67"/>
    </edge>
    <edge id=":J26_2" function="internal">
        <lane id=":J26_2_0" index="0" speed="25.00" length="9.57" shape="-2138.34,-1926.81 -2135.54,-1927.32 -2133.62,-1927.60 -2131.68,-1927.78 -2128.84,-1927.98"/>
    </edge>
    <edge id=":J26_3" function="internal">
        <lane id=":J26_3_0" index="0" speed="6.24" length="2.86" shape="-2138.34,-1926.81 -2135.47,-1926.83"/>
    </edge>
    <edge id=":J26_4" function="internal">
        <lane id=":J26_4_0" index="0" speed="6.24" length="8.32" shape="-2135.47,-1926.83 -2133.80,-1925.62 -2133.31,-1923.17 -2134.00,-1919.48"/>
    </edge>
    <edge id=":J31_0" function="internal">
        <lane id=":J31_0_0" index="0" speed="9.48" length="3.59" shape="-968.77,-1069.47 -970.06,-1066.29 -970.17,-1066.18"/>
    </edge>
    <edge id=":J31_4" function="internal">
        <lane id=":J31_4_0" index="0" speed="9.48" length="10.77" shape="-970.17,-1066.18 -972.25,-1063.83 -975.33,-1062.09 -979.29,-1061.06"/>
    </edge>
    <edge id=":J31_1" function="internal">
        <lane id=":J31_1_0" index="0" speed="8.14" length="10.49" shape="-979.77,-1064.22 -976.78,-1064.98 -974.47,-1066.23 -972.87,-1067.97 -971.95,-1070.20"/>
    </edge>
    <edge id=":J31_2" function="internal">
        <lane id=":J31_2_0" index="0" speed="6.14" length="9.06" shape="-973.64,-1056.03 -973.91,-1058.56 -974.95,-1060.25 -976.74,-1061.08 -979.29,-1061.06"/>
    </edge>
    <edge id=":J31_3" function="internal">
        <lane id=":J31_3_0" index="0" speed="25.00" length="14.30" shape="-973.64,-1056.03 -973.46,-1059.66 -973.15,-1063.16 -972.66,-1066.63 -971.95,-1070.20"/>
    </edge>
    <edge id=":J33_0" function="internal">
        <lane id=":J33_0_0" index="0" speed="8.44" length="2.10" shape="2017.04,-1051.56 2017.10,-1050.94 2017.09,-1050.51 2016.99,-1050.09 2016.80,-1049.50"/>
    </edge>
    <edge id=":J33_1" function="internal">
        <lane id=":J33_1_0" index="0" speed="25.00" length="0.70" shape="2013.78,-1050.56 2013.84,-1050.76 2013.87,-1050.90 2013.88,-1051.04 2013.86,-1051.25"/>
    </edge>
    <edge id=":J4_0" function="internal">
        <lane id=":J4_0_0" index="0" speed="25.00" length="0.84" shape="-3.86,732.79 -4.11,732.84 -4.28,732.86 -4.45,732.87 -4.70,732.87"/>
    </edge>
    <edge id=":J4_1" function="internal">
        <lane id=":J4_1_0" index="0" speed="25.00" length="0.28" shape="-4.71,729.67 -4.62,729.67 -4.57,729.67 -4.51,729.66 -4.43,729.65"/>
    </edge>
    <edge id=":J5_0" function="internal">
        <lane id=":J5_0_0" index="0" speed="6.53" length="4.06" shape="1280.75,499.92 1280.12,500.75 1279.37,501.40 1278.50,501.87 1277.50,502.15"/>
    </edge>
    <edge id=":J5_1" function="internal">
        <lane id=":J5_1_0" index="0" speed="4.14" length="1.35" shape="1276.93,499.00 1277.26,498.91 1277.56,498.75 1277.81,498.54 1278.01,498.26"/>
    </edge>
    <edge id=":J6_0" function="internal">
        <lane id=":J6_0_0" index="0" speed="25.00" length="16.66" shape="1734.89,-247.21 1733.38,-243.50 1731.48,-239.62 1729.41,-235.83 1727.37,-232.37"/>
    </edge>
    <edge id=":J6_1" function="internal">
        <lane id=":J6_1_0" index="0" speed="10.35" length="3.79" shape="1734.89,-247.21 1733.15,-244.21 1732.90,-244.01"/>
    </edge>
    <edge id=":J6_6" function="internal">
        <lane id=":J6_6_0" index="0" speed="10.35" length="12.76" shape="1732.90,-244.01 1730.30,-241.94 1726.32,-240.38 1721.23,-239.54"/>
    </edge>
    <edge id=":J6_2" function="internal">
        <lane id=":J6_2_0" index="0" speed="9.18" length="12.88" shape="1720.96,-242.73 1725.11,-243.37 1728.31,-244.51 1730.56,-246.14 1731.87,-248.27"/>
    </edge>
    <edge id=":J6_3" function="internal">
        <lane id=":J6_3_0" index="0" speed="7.38" length="17.67" shape="1720.96,-242.73 1726.39,-242.51 1729.27,-240.71 1729.60,-237.33 1727.37,-232.37"/>
    </edge>
    <edge id=":J6_4" function="internal">
        <lane id=":J6_4_0" index="0" speed="5.57" length="9.39" shape="1724.63,-234.04 1725.82,-236.67 1725.65,-238.47 1724.12,-239.42 1721.23,-239.54"/>
    </edge>
    <edge id=":J6_5" function="internal">
        <lane id=":J6_5_0" index="0" speed="25.00" length="15.99" shape="1724.63,-234.04 1726.63,-237.40 1728.61,-240.98 1730.41,-244.65 1731.87,-248.27"/>
    </edge>

    <edge id="-E0" from="J16" to="J1" priority="-1">
        <lane id="-E0_0" index="0" speed="25.00" length="1262.41" shape="-1003.85,-2.34 253.28,-117.74"/>
    </edge>
    <edge id="-E1" from="J4" to="J17" priority="-1">
        <lane id="-E1_0" index="0" speed="25.00" length="1027.47" shape="-4.70,732.87 -1032.16,735.88"/>
    </edge>
    <edge id="-E10" from="J16" to="J15" priority="-1">
        <lane id="-E10_0" index="0" speed="25.00" length="1424.94" shape="-1015.12,1.13 -2439.86,-22.92"/>
    </edge>
    <edge id="-E12" from="J18" to="J17" priority="-1">
        <lane id="-E12_0" index="0" speed="25.00" length="1431.53" shape="-2463.90,750.80 -1032.48,732.68"/>
    </edge>
    <edge id="-E13" from="J20" to="J18" priority="-1">
        <lane id="-E13_0" index="0" speed="25.00" length="1348.36" shape="-3804.59,524.01 -2475.33,750.17"/>
    </edge>
    <edge id="-E14" from="J21" to="J20" priority="-1">
        <lane id="-E14_0" index="0" speed="25.00" length="685.85" shape="-3835.35,-162.72 -3805.92,522.50"/>
    </edge>
    <edge id="-E15" from="J15" to="J21" priority="-1">
        <lane id="-E15_0" index="0" speed="25.00" length="1385.93" shape="-2451.40,-23.50 -3829.78,-167.96"/>
    </edge>
    <edge id="-E17" from="J25" to="J24" priority="-1">
        <lane id="-E17_0" index="0" speed="25.00" length="877.11" shape="-3520.63,-1667.67 -3787.07,-832.00"/>
    </edge>
    <edge id="-E18" from="J26" to="J25" priority="-1">
        <lane id="-E18_0" index="0" speed="25.00" length="1404.96" shape="-2137.76,-1923.67 -3519.39,-1668.75"/>
    </edge>
    <edge id="-E19" from="J21" to="J24" priority="-1">
        <lane id="-E19_0" index="0" speed="25.00" length="656.08" shape="-3838.36,-177.55 -3790.33,-831.87"/>
    </edge>
    <edge id="-E2" from="J5" to="J4" priority="-1">
        <lane id="-E2_0" index="0" speed="25.00" length="1301.95" shape="1277.50,502.15 -3.86,732.79"/>
    </edge>
    <edge id="-E20" from="J31" to="J14" priority="-1">
        <lane id="-E20_0" index="0" speed="25.00" length="1487.42" shape="-979.29,-1061.06 -2449.89,-837.98"/>
    </edge>
    <edge id="-E24" from="J6" to="J1" priority="-1">
        <lane id="-E24_0" index="0" speed="25.00" length="1472.69" shape="1721.23,-239.54 253.85,-114.58"/>
    </edge>
    <edge id="-E25" from="J12" to="J31" priority="-1" shape="-780.07,-2018.79 -880.63,-1444.82 -971.77,-1063.82">
        <lane id="-E25_0" index="0" speed="25.00" length="960.28" shape="-779.89,-2010.55 -879.06,-1444.50 -968.77,-1069.47"/>
    </edge>
    <edge id="-E3" from="J6" to="J5" priority="-1">
        <lane id="-E3_0" index="0" speed="25.00" length="857.75" shape="1727.37,-232.37 1280.75,499.92"/>
    </edge>
    <edge id="-E4" from="J33" to="J6" priority="-1">
        <lane id="-E4_0" index="0" speed="25.00" length="850.38" shape="2016.80,-1049.50 1734.89,-247.21"/>
    </edge>
    <edge id="-E5" from="J11" to="J33" priority="-1" shape="1347.67,-1949.26 2007.45,-1134.23 2015.52,-1050.70">
        <lane id="-E5_0" index="0" speed="25.00" length="1131.32" shape="1349.83,-1949.13 2009.00,-1134.86 2017.04,-1051.56"/>
    </edge>
    <edge id="-E6" from="J12" to="J11" priority="-1">
        <lane id="-E6_0" index="0" speed="25.00" length="2120.63" shape="-773.24,-2020.17 1346.26,-1950.91"/>
    </edge>
    <edge id="-E7" from="J26" to="J12" priority="-1">
        <lane id="-E7_0" index="0" speed="25.00" length="1343.75" shape="-2128.84,-1927.98 -788.24,-2019.83"/>
    </edge>
    <edge id="E0" from="J1" to="J16" priority="-1">
        <lane id="E0_0" index="0" speed="25.00" length="1262.41" shape="253.57,-114.55 -1003.56,0.85"/>
    </edge>
    <edge id="E1" from="J17" to="J4" priority="-1">
        <lane id="E1_0" index="0" speed="25.00" length="1027.47" shape="-1032.17,732.68 -4.71,729.67"/>
    </edge>
    <edge id="E10" from="J15" to="J16" priority="-1">
        <lane id="E10_0" index="0" speed="25.00" length="1424.94" shape="-2439.81,-26.12 -1015.07,-2.07"/>
    </edge>
    <edge id="E12" from="J17" to="J18" priority="-1">
        <lane id="E12_0" index="0" speed="25.00" length="1431.53" shape="-1032.44,735.88 -2463.86,754.00"/>
    </edge>
    <edge id="E13" from="J18" to="J20" priority="-1">
        <lane id="E13_0" index="0" speed="25.00" length="1348.36" shape="-2475.87,753.32 -3805.13,527.16"/>
    </edge>
    <edge id="E14" from="J20" to="J21" priority="-1">
        <lane id="E14_0" index="0" speed="25.00" length="685.85" shape="-3809.12,522.64 -3838.55,-162.58"/>
    </edge>
    <edge id="E15" from="J21" to="J15" priority="-1">
        <lane id="E15_0" index="0" speed="25.00" length="1385.93" shape="-3829.45,-171.14 -2451.07,-26.68"/>
    </edge>
    <edge id="E17" from="J24" to="J25" priority="-1">
        <lane id="E17_0" index="0" speed="25.00" length="877.11" shape="-3790.12,-832.98 -3523.68,-1668.64"/>
    </edge>
    <edge id="E18" from="J25" to="J26" priority="-1">
        <lane id="E18_0" index="0" speed="25.00" length="1404.96" shape="-3519.97,-1671.90 -2138.34,-1926.81"/>
    </edge>
    <edge id="E19" from="J24" to="J21" priority="-1">
        <lane id="E19_0" index="0" speed="25.00" length="656.08" shape="-3787.14,-831.64 -3835.16,-177.32"/>
    </edge>
    <edge id="E2" from="J4" to="J5" priority="-1">
        <lane id="E2_0" index="0" speed="25.00" length="1301.95" shape="-4.43,729.65 1276.93,499.00"/>
    </edge>
    <edge id="E20" from="J14" to="J31" priority="-1">
        <lane id="E20_0" index="0" speed="25.00" length="1487.42" shape="-2450.37,-841.14 -979.77,-1064.22"/>
    </edge>
    <edge id="E21" from="J15" to="J18" priority="-1">
        <lane id="E21_0" index="0" speed="13.89" length="763.01" shape="-2445.55,-17.44 -2469.39,745.20"/>
    </edge>
    <edge id="E24" from="J1" to="J6" priority="-1">
        <lane id="E24_0" index="0" speed="25.00" length="1472.69" shape="253.58,-117.77 1720.96,-242.73"/>
    </edge>
    <edge id="E25" from="J31" to="J12" priority="-1" shape="-971.77,-1063.82 -885.02,-1442.67 -806.06,-1869.42 -780.07,-2018.79">
        <lane id="E25_0" index="0" speed="25.00" length="959.92" shape="-971.95,-1070.20 -886.59,-1442.99 -807.63,-1869.70 -783.03,-2011.10"/>
    </edge>
    <edge id="E26" from="J16" to="J31" priority="-1">
        <lane id="E26_0" index="0" speed="25.00" length="1049.08" shape="-1009.38,-7.56 -973.64,-1056.03"/>
    </edge>
    <edge id="E3" from="J5" to="J6" priority="-1">
        <lane id="E3_0" index="0" speed="25.00" length="857.75" shape="1278.01,498.26 1724.63,-234.04"/>
    </edge>
    <edge id="E4" from="J6" to="J33" priority="-1">
        <lane id="E4_0" index="0" speed="25.00" length="850.38" shape="1731.87,-248.27 2013.78,-1050.56"/>
    </edge>
    <edge id="E5" from="J33" to="J11" priority="-1" shape="2015.52,-1050.70 2007.45,-1134.23 1347.67,-1949.26">
        <lane id="E5_0" index="0" speed="25.00" length="1129.40" shape="2013.86,-1051.25 2005.90,-1133.60 1347.35,-1947.12"/>
    </edge>
    <edge id="E6" from="J11" to="J12" priority="-1">
        <lane id="E6_0" index="0" speed="25.00" length="2120.63" shape="1346.16,-1947.71 -773.35,-2016.97"/>
    </edge>
    <edge id="E7" from="J12" to="J26" priority="-1">
        <lane id="E7_0" index="0" speed="25.00" length="1343.75" shape="-788.02,-2016.64 -2128.62,-1924.78"/>
    </edge>
    <edge id="E8" from="J26" to="J14" priority="-1">
        <lane id="E8_0" index="0" speed="13.89" length="1120.04" shape="-2134.00,-1919.48 -2454.95,-846.41"/>
    </edge>
    <edge id="E9" from="J14" to="J15" priority="-1">
        <lane id="E9_0" index="0" speed="25.00" length="799.69" shape="-2457.38,-831.43 -2445.44,-31.83"/>
    </edge>

    <junction id="J1" type="priority" x="253.57" y="-116.16" incLanes="-E24_0 -E0_0" intLanes=":J1_0_0 :J1_1_0" shape="253.99,-112.98 253.45,-119.36 253.13,-119.33 253.71,-112.96">
        <request index="0" response="00" foes="00" cont="0"/>
        <request index="1" response="00" foes="00" cont="0"/>
    </junction>
    <junction id="J11" type="priority" x="1347.67" y="-1949.26" incLanes="E5_0 -E6_0" intLanes=":J11_0_0 :J11_1_0" shape="1346.10,-1946.11 1351.08,-1950.14 1349.73,-1951.41 1348.97,-1951.87 1348.14,-1952.20 1347.26,-1952.41 1346.31,-1952.51">
        <request index="0" response="00" foes="00" cont="0"/>
        <request index="1" response="00" foes="00" cont="0"/>
    </junction>
    <junction id="J12" type="priority" x="-780.07" y="-2018.79" incLanes="E6_0 -E7_0 E25_0" intLanes=":J12_0_0 :J12_1_0 :J12_2_0 :J12_6_0 :J12_4_0 :J12_5_0" shape="-773.40,-2015.37 -773.19,-2021.77 -776.42,-2021.86 -778.81,-2021.90 -780.78,-2021.89 -782.74,-2021.80 -785.13,-2021.65 -788.35,-2021.43 -787.91,-2015.05 -785.77,-2014.76 -785.09,-2014.26 -784.67,-2013.54 -784.51,-2012.57 -784.61,-2011.38 -778.31,-2010.27 -777.36,-2013.16 -776.63,-2014.16 -775.72,-2014.86 -774.65,-2015.27">
        <request index="0" response="000000" foes="001000" cont="0"/>
        <request index="1" response="000000" foes="111000" cont="0"/>
        <request index="2" response="000000" foes="100000" cont="0"/>
        <request index="3" response="000011" foes="100011" cont="1"/>
        <request index="4" response="000010" foes="000010" cont="0"/>
        <request index="5" response="001110" foes="001110" cont="0"/>
    </junction>
    <junction id="J14" type="priority" x="-2459.08" y="-838.20" incLanes="-E20_0 E8_0" intLanes=":J14_0_0 :J14_1_0 :J14_2_0" shape="-2458.98,-831.41 -2455.78,-831.46 -2455.12,-833.78 -2454.28,-834.69 -2453.08,-835.43 -2451.54,-836.00 -2449.65,-836.39 -2450.61,-842.72 -2452.68,-842.81 -2453.29,-843.23 -2453.62,-843.89 -2453.66,-844.80 -2453.42,-845.95 -2456.49,-846.87 -2457.46,-843.66 -2458.16,-841.27 -2458.62,-839.26 -2458.88,-837.23 -2458.99,-834.75">
        <request index="0" response="000" foes="100" cont="0"/>
        <request index="1" response="000" foes="000" cont="0"/>
        <request index="2" response="001" foes="001" cont="0"/>
    </junction>
    <junction id="J15" type="priority" x="-2446.93" y="-24.64" incLanes="-E10_0 E9_0 E15_0" intLanes=":J15_0_0 :J15_1_0 :J15_2_0 :J15_3_0 :J15_4_0 :J15_5_0 :J15_7_0" shape="-2439.89,-21.32 -2439.78,-27.72 -2442.01,-28.21 -2442.79,-28.79 -2443.36,-29.59 -2443.71,-30.61 -2443.84,-31.85 -2447.04,-31.81 -2447.44,-29.66 -2447.97,-28.95 -2448.73,-28.48 -2449.70,-28.26 -2450.90,-28.27 -2451.57,-21.91 -2449.06,-21.21 -2448.20,-20.57 -2447.59,-19.73 -2447.24,-18.71 -2447.15,-17.49 -2443.95,-17.39 -2443.45,-19.60 -2442.88,-20.37 -2442.09,-20.91 -2441.10,-21.23">
        <request index="0" response="0000000" foes="1001000" cont="0"/>
        <request index="1" response="0000000" foes="1011000" cont="0"/>
        <request index="2" response="0100000" foes="0100000" cont="0"/>
        <request index="3" response="1100011" foes="1100011" cont="0"/>
        <request index="4" response="1100010" foes="1100010" cont="0"/>
        <request index="5" response="0000000" foes="0011100" cont="0"/>
        <request index="6" response="0000011" foes="0011011" cont="1"/>
    </junction>
    <junction id="J16" type="priority" x="-1008.02" y="-0.35" incLanes="E0_0 E10_0" intLanes=":J16_0_0 :J16_4_0 :J16_2_0 :J16_3_0" shape="-1003.41,2.44 -1003.99,-3.93 -1006.16,-4.17 -1006.90,-4.65 -1007.42,-5.36 -1007.71,-6.31 -1007.78,-7.50 -1010.97,-7.61 -1011.49,-5.39 -1012.06,-4.62 -1012.84,-4.08 -1013.84,-3.76 -1015.04,-3.67 -1015.15,2.73 -1010.80,2.82 -1009.27,2.82 -1007.75,2.78 -1005.90,2.65">
        <request index="0" response="0000" foes="0000" cont="0"/>
        <request index="1" response="1100" foes="1100" cont="1"/>
        <request index="2" response="0000" foes="0010" cont="0"/>
        <request index="3" response="0000" foes="0010" cont="0"/>
    </junction>
    <junction id="J17" type="priority" x="-1032.31" y="734.28" incLanes="-E1_0 -E12_0" intLanes=":J17_0_0 :J17_1_0" shape="-1032.15,737.48 -1032.17,731.08 -1032.50,731.08 -1032.42,737.48">
        <request index="0" response="00" foes="00" cont="0"/>
        <request index="1" response="00" foes="00" cont="0"/>
    </junction>
    <junction id="J18" type="priority" x="-2471.22" y="752.49" incLanes="E12_0 E21_0 -E13_0" intLanes=":J18_0_0 :J18_1_0 :J18_2_0 :J18_3_0" shape="-2463.84,755.60 -2463.92,749.20 -2466.13,748.78 -2466.89,748.24 -2467.42,747.47 -2467.72,746.47 -2467.79,745.25 -2470.99,745.15 -2471.50,747.36 -2472.07,748.07 -2472.86,748.51 -2473.85,748.68 -2475.06,748.59 -2476.14,754.90 -2473.54,755.32 -2471.62,755.56 -2470.02,755.66 -2468.41,755.68">
        <request index="0" response="0000" foes="0100" cont="0"/>
        <request index="1" response="1000" foes="1000" cont="0"/>
        <request index="2" response="1001" foes="1001" cont="0"/>
        <request index="3" response="0000" foes="0110" cont="0"/>
    </junction>
    <junction id="J20" type="priority" x="-3807.41" y="525.15" incLanes="E13_0 -E14_0" intLanes=":J20_0_0 :J20_1_0" shape="-3805.40,528.74 -3804.32,522.43 -3810.72,522.70 -3810.03,525.67 -3809.28,526.80 -3808.25,527.68 -3806.96,528.33">
        <request index="0" response="00" foes="00" cont="0"/>
        <request index="1" response="00" foes="00" cont="0"/>
    </junction>
    <junction id="J21" type="priority" x="-3837.28" y="-170.35" incLanes="E14_0 -E15_0 E19_0" intLanes=":J21_0_0 :J21_6_0 :J21_2_0 :J21_3_0 :J21_4_0 :J21_5_0" shape="-3840.15,-162.51 -3833.75,-162.78 -3833.41,-164.96 -3832.89,-165.68 -3832.14,-166.15 -3831.16,-166.38 -3829.95,-166.36 -3829.28,-172.73 -3831.79,-173.44 -3832.64,-174.09 -3833.22,-174.93 -3833.53,-175.97 -3833.57,-177.20 -3839.95,-177.67 -3840.18,-174.45 -3840.32,-172.06 -3840.38,-170.09 -3840.36,-168.13 -3840.28,-165.74">
        <request index="0" response="000000" foes="001000" cont="0"/>
        <request index="1" response="110000" foes="111000" cont="1"/>
        <request index="2" response="100000" foes="100000" cont="0"/>
        <request index="3" response="100011" foes="100011" cont="0"/>
        <request index="4" response="000000" foes="000010" cont="0"/>
        <request index="5" response="000000" foes="001110" cont="0"/>
    </junction>
    <junction id="J24" type="priority" x="-3788.71" y="-832.13" incLanes="-E17_0 -E19_0" intLanes=":J24_0_0 :J24_1_0" shape="-3785.55,-831.52 -3791.64,-833.46 -3791.81,-832.93 -3791.85,-832.74 -3791.88,-832.54 -3791.90,-832.31 -3791.93,-831.99">
        <request index="0" response="00" foes="00" cont="0"/>